RUNSPEC

TITLE
  EIGHTCELLS

DIMENS
  2 2 2 /

OIL
WATER

START
  1 'JAN' 2000 /

TABDIMS
  1 1 20 20 2 /

EQLDIMS
  1 /

WELLDIMS
  2 2 2 2 /

UNIFOUT

GRID

NEWTRAN

COORD
    0   0   0     0   0 100
   50   0   0    50   0 100
  100   0   0   100   0 100
    0  50   0     0  50 100
   50  50   0    50  50 100
  100  50   0   100  50 100
    0 100   0     0 100 100
   50 100   0    50 100 100
  100 100   0   100 100 100
/

ZCORN
  0 0 0 0
  0 0 0 0
  0 0 0 0
  0 0 0 0
  50 50 50 50
  50 50 50 50
  50 50 50 50
  50 50 50 50
  50 50 50 50
  50 50 50 50
  50 50 50 50
  50 50 50 50
  100 100 100 100
  100 100 100 100
  100 100 100 100
  100 100 100 100
/


PORO
  0.2  0.2  0.2  0.2   0.2  0.2  0.2  0.2
/

INCLUDE
 '../include/grid/perm.inc' /

COPY
  PERMX PERMY /
  PERMY PERMZ /
/


GRIDFILE
  0 1
/

INIT

PROPS


SWOF
-- SW KRW KROW PC
  0.1 0 1 1
  1 1.0 0.0 0
/


DENSITY
  800 1000 1.2 /

PVTW
  1 1 0.0001 0.2 0.00001 /

PVDO
  10 1   1
  150 0.9 1 /

ROCK
  100 0.0001 /

FILLEPS

REGIONS

SATNUM
  1  1  1  1  1  1  1  1/

EQLNUM
  1  1  1  1  1  1  1  1/

FIPNUM
  1 1 1 1 2 2 2 2
/

SOLUTION

EQUIL
-- datum pressure_datum owc/gwc pc@owc goc pc@goc item7 item8 oip_init
  100 100 50 /


SUMMARY
FPR
FOIP
FOPR
FOPT
FWPR
FWPT
FWCT
WOPT
/
WOPR
/
WWCT
/
WWPR
/
FWIR
FWIT
WWIR
/
WWIT
/

SCHEDULE

INCLUDE
  '../include/schedule/events.sch' /

INCLUDE
  '../include/schedule/schedule.sch' /
